32 

C   -1.2396   -3.1820   -0.5830    
C   -2.1965   -2.2400   -0.6122    
C   -2.2400    2.1965    0.6122    
C   -3.1820    1.2395    0.5832    
C    3.1820   -1.2395    0.5832    
C    2.2400   -2.1965    0.6122    
C    2.1965    2.2400   -0.6122    
C    1.2396    3.1820   -0.5831    
C    0.0388   -3.1463    0.0942    
C    3.1464    0.0388   -0.0940    
C    2.1795    0.9573    0.0588    
C    0.9574   -2.1796   -0.0590    
C   -3.1464   -0.0389   -0.0942    
C   -2.1796   -0.9573    0.0588    
C   -0.9574    2.1796   -0.0590    
C   -0.0389    3.1463    0.0942    
H   -1.4387   -4.1190   -1.1007   
H   -3.0937   -2.4647   -1.1871   
H   -2.4645    3.0937    1.1874   
H   -4.1189    1.4385    1.1010   
H    4.1189   -1.4386    1.1010   
H    2.4646   -3.0937    1.1872   
H    3.0939    2.4646   -1.1872   
H    1.4386    4.1190   -1.1008   
H    0.2514   -4.0120    0.7172   
H    4.0123    0.2515   -0.7168   
H    0.7467   -1.3461   -0.7227   
H   -4.0122   -0.2514   -0.7170   
H    1.3458    0.7465    0.7223   
H   -0.7468    1.3462   -0.7228   
H   -1.3461   -0.7466    0.7225   
H   -0.2513    4.0120    0.7173   
