16

C -0.619957679 -0.000000000  0.0000
C -0.572766211 -0.237247533  0.0000
C -0.438376279 -0.438376279  0.0000
C -0.237247533 -0.572766211  0.0000
C -0.000000000 -0.619957679  0.0000
C 0.237247533 -0.572766211  0.0000
C 0.438376279 -0.438376279  0.0000
C 0.572766211 -0.237247533  0.0000
C 0.619957679 -0.000000000  0.0000
C 0.572766211 0.237247533  0.0000
C 0.438376279 0.438376279  0.0000
C 0.237247533 0.572766211  0.0000
C 0.000000000 0.619957679  0.0000
C -0.237247533 0.572766211  0.0000
C -0.438376279 0.438376279  0.0000
C -0.572766211 0.237247533  0.0000
