14

C -0.70580 -0.00000 0
C -0.21810 -0.67126 0
C 0.57101 -0.41486 0
C 0.57101 0.41486 0
C -0.21810 0.67126 0
C -0.70580 -1.34252 0
C -1.49491 -1.08612 0
C -1.49491 -0.25640 0
H 1.46092 -1.06142 0
H 1.46092 1.06142 0
H -0.55802 1.71742 0
H -0.36588 -2.38868 0
H -2.38483 -1.73268 0
H -2.38483 0.39017 0